@<TRIPOS>MOLECULE
benzene.pdb
 12 12 0 0 0
SMALL
GASTEIGER

@<TRIPOS>ATOM
      1  C1         5.2740    1.9990   -8.5680 C.ar    1  BEN1       -0.0618
      2  C2         6.6270    2.0180   -8.2090 C.ar    1  BEN1       -0.0618
      3  C3         7.3660    0.8290   -8.2020 C.ar    1  BEN1       -0.0618
      4  C4         6.7520   -0.3790   -8.5540 C.ar    1  BEN1       -0.0618
      5  C5         5.3990   -0.3980   -8.9120 C.ar    1  BEN1       -0.0618
      6  C6         4.6600    0.7910   -8.9190 C.ar    1  BEN1       -0.0618
      7  H11        4.7040    2.9160   -8.5730 H       1  BEN1        0.0618
      8  H21        7.1010    2.9500   -7.9380 H       1  BEN1        0.0618
      9  H31        8.4100    0.8440   -7.9260 H       1  BEN1        0.0618
     10  H41        7.3220   -1.2960   -8.5480 H       1  BEN1        0.0618
     11  H51        4.9250   -1.3300   -9.1830 H       1  BEN1        0.0618
     12  H61        3.6160    0.7760   -9.1960 H       1  BEN1        0.0618
@<TRIPOS>BOND
     1    12     6    1
     2    11     5    1
     3     6     5   ar
     4     6     1   ar
     5     5     4   ar
     6     7     1    1
     7     1     2   ar
     8     4    10    1
     9     4     3   ar
    10     2     3   ar
    11     2     8    1
    12     3     9    1
